<?xml version="1.0" encoding="UTF-8"?>
<!DOCTYPE network SYSTEM "http://www.matsim.org/files/dtd/network_v2.dtd">
<network>

<!-- ====================================================================== -->

	<nodes>
		<node id="1" x="4594623.479586738" y="5821394.308518679" >
		</node>
		<node id="10" x="4590403.79205302" y="5820809.3817453245" >
		</node>
		<node id="100" x="4580789.410186723" y="5810830.07168075" >
		</node>
		<node id="1000" x="4591686.119058687" y="5823735.754924008" >
		</node>
		<node id="1001" x="4591750.1344236005" y="5823760.327668721" >
		</node>
		<node id="1002" x="4591855.283937756" y="5823799.029086089" >
		</node>
		<node id="1003" x="4591866.076399341" y="5823802.570629964" >
		</node>
		<node id="1004" x="4591879.520090056" y="5823809.501123689" >
		</node>
		<node id="1005" x="4591884.864145956" y="5823814.053652185" >
		</node>
		<node id="1008" x="4591891.648589717" y="5823814.180851727" >
		</node>
		<node id="1009" x="4591898.41208441" y="5823815.420730485" >
		</node>
		<node id="101" x="4580830.186361894" y="5810900.636336104" >
		</node>
		<node id="1010" x="4591907.868502726" y="5823817.824292529" >
		</node>
		<node id="1011" x="4591912.596716199" y="5823819.025973688" >
		</node>
		<node id="1012" x="4591920.017853323" y="5823821.391338219" >
		</node>
		<node id="1013" x="4591931.530403917" y="5823822.720415097" >
		</node>
		<node id="1014" x="4591944.399845958" y="5823824.074892108" >
		</node>
		<node id="1015" x="4591958.647124904" y="5823824.3421896845" >
		</node>
		<node id="1016" x="4591969.522981003" y="5823823.433201494" >
		</node>
		<node id="1017" x="4591980.398837687" y="5823822.52421319" >
		</node>
		<node id="1018" x="4591993.330926836" y="5823820.54074288" >
		</node>
		<node id="1019" x="4592001.514055835" y="5823818.468178783" >
		</node>
		<node id="102" x="4580853.660272138" y="5810941.3446408985" >
		</node>
		<node id="1020" x="4592008.319344602" y="5823817.482894386" >
		</node>
		<node id="1021" x="4592017.180769896" y="5823815.423023728" >
		</node>
		<node id="1022" x="4592027.50362922" y="5823807.825244809" >
		</node>
		<node id="1023" x="4592141.765492857" y="5823758.770145111" >
		</node>
		<node id="1024" x="4592145.857105804" y="5823757.733963021" >
		</node>
		<node id="1025" x="4592149.94871467" y="5823756.697880837" >
		</node>
		<node id="1026" x="4592152.641641725" y="5823757.86156458" >
		</node>
		<node id="1028" x="4583647.350623538" y="5825614.247773775" >
		</node>
		<node id="1029" x="4583644.94152993" y="5825616.369552481" >
		</node>
		<node id="103" x="4580848.764574206" y="5810995.443562643" >
		</node>
		<node id="1030" x="4583640.530555009" y="5825636.328954695" >
		</node>
		<node id="1031" x="4583629.7120859595" y="5825673.987442256" >
		</node>
		<node id="1032" x="4583615.351051309" y="5825720.489781569" >
		</node>
		<node id="1033" x="4583614.615950478" y="5825723.816433887" >
		</node>
		<node id="1034" x="4583605.908250742" y="5825757.058850054" >
		</node>
		<node id="1035" x="4583604.514001797" y="5825759.26109309" >
		</node>
		<node id="1036" x="4583603.138710093" y="5825760.350719731" >
		</node>
		<node id="1037" x="4583601.763422549" y="5825761.440246407" >
		</node>
		<node id="1038" x="4583599.031704795" y="5825762.506679211" >
		</node>
		<node id="1039" x="4583592.890356206" y="5825764.627960298" >
		</node>
		<node id="104" x="4580844.857342415" y="5811025.743633612" >
		</node>
		<node id="1040" x="4583537.73157897" y="5825777.043571472" >
		</node>
		<node id="1041" x="4583473.022104047" y="5825792.636213551" >
		</node>
		<node id="1042" x="4583464.149234401" y="5825795.824132092" >
		</node>
		<node id="1043" x="4583453.109191647" y="5825806.766375904" >
		</node>
		<node id="1044" x="4583442.182915015" y="5825811.03242592" >
		</node>
		<node id="1045" x="4583433.310042253" y="5825814.220443071" >
		</node>
		<node id="1046" x="4583423.080840747" y="5825817.385369856" >
		</node>
		<node id="1047" x="4583422.402728261" y="5825817.373776928" >
		</node>
		<node id="1048" x="4583411.4575870745" y="5825822.752645031" >
		</node>
		<node id="1049" x="4583390.999282236" y="5825829.082600756" >
		</node>
		<node id="105" x="4580827.398974981" y="5811063.427481748" >
		</node>
		<node id="1050" x="4583369.825138994" y="5825837.626500461" >
		</node>
		<node id="1051" x="4583363.683883993" y="5825839.748080656" >
		</node>
		<node id="1052" x="4583354.151959598" y="5825841.811891368" >
		</node>
		<node id="1053" x="4583304.4389084615" y="5825853.20977265" >
		</node>
		<node id="1054" x="4583298.99482923" y="5825854.230234234" >
		</node>
		<node id="1055" x="4583282.681354453" y="5825856.178895763" >
		</node>
		<node id="1056" x="4583274.505753453" y="5825858.265995019" >
		</node>
		<node id="1057" x="4583250.657164149" y="5825864.538888977" >
		</node>
		<node id="1058" x="4583119.905486337" y="5825894.596847939" >
		</node>
		<node id="1059" x="4582985.067892646" y="5825925.701991397" >
		</node>
		<node id="106" x="4580749.796991463" y="5811209.867092593" >
		</node>
		<node id="1060" x="4582970.770483519" y="5825928.798864935" >
		</node>
		<node id="1061" x="4582953.0446668845" y="5825934.063900536" >
		</node>
		<node id="1062" x="4582919.684170067" y="5825941.290307403" >
		</node>
		<node id="1063" x="4582873.382780428" y="5825951.637181014" >
		</node>
		<node id="1064" x="4582869.992102421" y="5825951.57980952" >
		</node>
		<node id="1065" x="4582865.923305551" y="5825951.511044514" >
		</node>
		<node id="1066" x="4582861.176294073" y="5825951.430781897" >
		</node>
		<node id="1067" x="4582853.735686362" y="5825950.19182914" >
		</node>
		<node id="1068" x="4591875.860431132" y="5823815.909462583" >
		</node>
		<node id="1069" x="4591811.209197517" y="5823789.0971558755" >
		</node>
		<node id="107" x="4580732.672328036" y="5811271.404857108" >
		</node>
		<node id="1070" x="4591743.165066725" y="5823762.222339609" >
		</node>
		<node id="1071" x="4591681.779874169" y="5823742.151414096" >
		</node>
		<node id="1072" x="4591631.124589717" y="5823728.960381817" >
		</node>
		<node id="1073" x="4591581.022893508" y="5823722.458755261" >
		</node>
		<node id="1074" x="4591546.421636157" y="5823721.812449179" >
		</node>
		<node id="1075" x="4591520.598816527" y="5823723.556415874" >
		</node>
		<node id="1076" x="4591479.088400494" y="5823729.46011532" >
		</node>
		<node id="1077" x="4591434.8228993025" y="5823737.538891268" >
		</node>
		<node id="1078" x="4591425.795462657" y="5823748.501337381" >
		</node>
		<node id="1079" x="4591425.774713613" y="5823749.6140222745" >
		</node>
		<node id="108" x="4580730.100046396" y="5811397.120509518" >
		</node>
		<node id="1080" x="4591386.957716065" y="5823756.681813193" >
		</node>
		<node id="1081" x="4591375.361842087" y="5823759.804868306" >
		</node>
		<node id="1082" x="4591366.604097314" y="5823761.43081504" >
		</node>
		<node id="1083" x="4591349.876577342" y="5823743.251408734" >
		</node>
		<node id="109" x="4580741.243478422" y="5811511.4856730895" >
		</node>
		<node id="11" x="4590466.102309371" y="5820814.356681474" >
		</node>
		<node id="110" x="4580766.647666603" y="5811569.492069056" >
		</node>
		<node id="111" x="4580947.809844318" y="5811767.736775978" >
		</node>
		<node id="1116" x="4590629.234334278" y="5823988.543761894" >
		</node>
		<node id="1117" x="4590625.883447185" y="5823986.255691484" >
		</node>
		<node id="1118" x="4590621.21687085" y="5823981.717046608" >
		</node>
		<node id="1119" x="4590616.550190422" y="5823977.178497735" >
		</node>
		<node id="112" x="4581035.74443978" y="5811850.856040194" >
		</node>
		<node id="1120" x="4590612.438606668" y="5823979.328579772" >
		</node>
		<node id="1121" x="4590610.382762762" y="5823980.403668654" >
		</node>
		<node id="1122" x="4590606.970124608" y="5823981.453660418" >
		</node>
		<node id="1123" x="4590604.934831204" y="5823981.416060593" >
		</node>
		<node id="1124" x="4590602.445042296" y="5823981.369968912" >
		</node>
		<node id="1125" x="4590619.172477154" y="5823999.549329129" >
		</node>
		<node id="1126" x="4590618.948677574" y="5823999.545226604" >
		</node>
		<node id="1127" x="4590614.878194649" y="5823999.469930802" >
		</node>
		<node id="1128" x="4590579.579970664" y="5823999.930649879" >
		</node>
		<node id="1129" x="4590521.914671378" y="5823998.865405074" >
		</node>
		<node id="113" x="4581283.513378038" y="5812071.734693138" >
		</node>
		<node id="1130" x="4590485.9791453" y="5823997.088748806" >
		</node>
		<node id="1131" x="4590464.310915438" y="5823994.462692433" >
		</node>
		<node id="1132" x="4590392.562943572" y="5823984.234448769" >
		</node>
		<node id="1133" x="4590377.678787061" y="5823981.733884451" >
		</node>
		<node id="1134" x="4590312.714673777" y="5823971.631929689" >
		</node>
		<node id="1135" x="4590273.34582751" y="5823972.019751103" >
		</node>
		<node id="1136" x="4590249.580733656" y="5823972.695263615" >
		</node>
		<node id="1137" x="4590227.131437547" y="5823975.621150267" >
		</node>
		<node id="1138" x="4590213.4811654035" y="5823979.822220699" >
		</node>
		<node id="1139" x="4590206.635527067" y="5823983.035494184" >
		</node>
		<node id="1140" x="4590199.748987806" y="5823988.474148556" >
		</node>
		<node id="1141" x="4590192.862448625" y="5823993.912802552" >
		</node>
		<node id="1142" x="4590189.408903789" y="5823997.188472578" >
		</node>
		<node id="1143" x="4590184.557662139" y="5824002.66452615" >
		</node>
		<node id="1144" x="4590176.931369137" y="5824011.428851807" >
		</node>
		<node id="1145" x="4590038.1622605445" y="5824176.952002959" >
		</node>
		<node id="1146" x="4590036.74420692" y="5824180.265177541" >
		</node>
		<node id="1147" x="4590036.682852012" y="5824183.603246504" >
		</node>
		<node id="1148" x="4590037.320345988" y="5824185.841125085" >
		</node>
		<node id="1149" x="4590039.314638667" y="5824188.1039022915" >
		</node>
		<node id="1150" x="4590053.99388818" y="5824201.730459692" >
		</node>
		<node id="1151" x="4590055.9881808525" y="5824203.993237247" >
		</node>
		<node id="1152" x="4590057.304072014" y="5824206.243615453" >
		</node>
		<node id="1153" x="4590059.298264724" y="5824208.506388935" >
		</node>
		<node id="1154" x="4590059.237009293" y="5824211.844462429" >
		</node>
		<node id="1155" x="4590059.114294212" y="5824218.5207010545" >
		</node>
		<node id="1156" x="4590058.394993169" y="5824220.733581219" >
		</node>
		<node id="1157" x="4590043.842333159" y="5824237.162359765" >
		</node>
		<node id="1158" x="4590025.096868536" y="5824260.19248883" >
		</node>
		<node id="1159" x="4590009.14670045" y="5824278.821849849" >
		</node>
		<node id="116" x="4581429.299141669" y="5812246.392661301" >
		</node>
		<node id="1160" x="4590003.59709309" y="5824285.398402237" >
		</node>
		<node id="1161" x="4590002.883929975" y="5824285.961751309" >
		</node>
		<node id="1162" x="4589986.156573306" y="5824267.782421377" >
		</node>
		<node id="1163" x="4589985.49258577" y="5824268.306866669" >
		</node>
		<node id="1164" x="4589982.018983333" y="5824272.695334522" >
		</node>
		<node id="1165" x="4589957.744853058" y="5824301.189634925" >
		</node>
		<node id="1166" x="4589901.510710296" y="5824370.28115656" >
		</node>
		<node id="1167" x="4589841.927239092" y="5824437.085836064" >
		</node>
		<node id="1168" x="4589806.495181659" y="5824482.072355156" >
		</node>
		<node id="1169" x="4589674.453199077" y="5824652.180291734" >
		</node>
		<node id="117" x="4581607.778678916" y="5812490.088465233" >
		</node>
		<node id="1170" x="4589665.573941316" y="5824655.356996857" >
		</node>
		<node id="1171" x="4589644.057438137" y="5824681.677067586" >
		</node>
		<node id="1172" x="4589603.060019338" y="5824734.3546122555" >
		</node>
		<node id="1173" x="4589566.974221328" y="5824778.217715201" >
		</node>
		<node id="1174" x="4589560.706781925" y="5824787.007674167" >
		</node>
		<node id="1175" x="4589559.309571973" y="5824789.208266246" >
		</node>
		<node id="1176" x="4589558.570206843" y="5824792.533942529" >
		</node>
		<node id="1177" x="4589555.775682724" y="5824796.935222325" >
		</node>
		<node id="1178" x="4589551.583852694" y="5824803.5369897885" >
		</node>
		<node id="1179" x="4589519.589089152" y="5824846.36209994" >
		</node>
		<node id="1180" x="4589488.9718675325" y="5824888.099525677" >
		</node>
		<node id="1181" x="4589483.403276624" y="5824895.789292927" >
		</node>
		<node id="1182" x="4589482.00606598" y="5824897.989883413" >
		</node>
		<node id="1183" x="4589480.629206852" y="5824899.077883079" >
		</node>
		<node id="1184" x="4589478.574052279" y="5824900.153385186" >
		</node>
		<node id="1185" x="4589445.894414119" y="5824906.235080987" >
		</node>
		<node id="1186" x="4589443.859511483" y="5824906.197988082" >
		</node>
		<node id="1187" x="4589439.81017026" y="5824905.010916028" >
		</node>
		<node id="1188" x="4589437.775267686" y="5824904.9738231385" >
		</node>
		<node id="1189" x="4589435.760725007" y="5824903.82393981" >
		</node>
		<node id="1190" x="4589434.4244818" y="5824902.686454112" >
		</node>
		<node id="1191" x="4589433.088234437" y="5824901.549068377" >
		</node>
		<node id="1194" x="4589426.943023776" y="5824903.662979105" >
		</node>
		<node id="1195" x="4589424.765931026" y="5824911.414731693" >
		</node>
		<node id="1196" x="4589423.125042291" y="5824926.967831288" >
		</node>
		<node id="1197" x="4589390.405083617" y="5824935.275317737" >
		</node>
		<node id="1198" x="4589374.723455359" y="5824939.441459715" >
		</node>
		<node id="1199" x="4589369.27689705" y="5824940.455176201" >
		</node>
		<node id="12" x="4590518.518714486" y="5820827.926901283" >
		</node>
		<node id="120" x="4581960.151669029" y="5812960.3379367385" >
		</node>
		<node id="1200" x="4589348.786391443" y="5824947.873015335" >
		</node>
		<node id="1201" x="4589322.869786431" y="5824955.191883005" >
		</node>
		<node id="1202" x="4589307.167894426" y="5824960.471015676" >
		</node>
		<node id="1203" x="4589267.584493393" y="5824973.106412355" >
		</node>
		<node id="1204" x="4589226.644780812" y="5824985.717520312" >
		</node>
		<node id="1205" x="4589224.589724117" y="5824986.79312422" >
		</node>
		<node id="1206" x="4589218.444702107" y="5824988.907438117" >
		</node>
		<node id="1207" x="4589189.015539394" y="5825002.8414856605" >
		</node>
		<node id="1208" x="4589182.172063289" y="5825006.05609811" >
		</node>
		<node id="1209" x="4589177.545698473" y="5824999.293461275" >
		</node>
		<node id="121" x="4582271.353949506" y="5813375.900333425" >
		</node>
		<node id="1210" x="4589172.899077273" y="5824993.643517945" >
		</node>
		<node id="1211" x="4589166.916106841" y="5824986.85628582" >
		</node>
		<node id="1212" x="4589150.941239063" y="5824969.8694606135" >
		</node>
		<node id="1213" x="4589136.899886259" y="5824958.483292238" >
		</node>
		<node id="1214" x="4589129.560214801" y="5824951.671362626" >
		</node>
		<node id="1215" x="4589129.762679111" y="5824940.544329061" >
		</node>
		<node id="1216" x="4589127.413533336" y="5824845.890798191" >
		</node>
		<node id="1217" x="4589122.068151208" y="5824841.341247038" >
		</node>
		<node id="1218" x="4589119.415615626" y="5824837.953774509" >
		</node>
		<node id="1219" x="4589116.76317997" y="5824834.566306229" >
		</node>
		<node id="122" x="4582616.409839122" y="5813843.72983497" >
		</node>
		<node id="1220" x="4589115.487600568" y="5824830.090839961" >
		</node>
		<node id="1223" x="4589112.915986279" y="5824822.252592137" >
		</node>
		<node id="1224" x="4589106.719888079" y="5824789.860906181" >
		</node>
		<node id="1225" x="4589104.745750136" y="5824786.485835983" >
		</node>
		<node id="1226" x="4589103.4498147" y="5824783.123058952" >
		</node>
		<node id="1227" x="4589100.09882078" y="5824780.835987211" >
		</node>
		<node id="1228" x="4589092.718334843" y="5824776.249438467" >
		</node>
		<node id="1229" x="4589086.674290533" y="5824772.800381251" >
		</node>
		<node id="123" x="4583141.298099057" y="5814548.16463825" >
		</node>
		<node id="1230" x="4589084.00159921" y="5824770.525607087" >
		</node>
		<node id="1231" x="4589080.6302463515" y="5824769.351324237" >
		</node>
		<node id="1232" x="4589076.560440222" y="5824769.2773410715" >
		</node>
		<node id="1233" x="4589069.099130583" y="5824769.14167196" >
		</node>
		<node id="1234" x="4589011.423085995" y="5824769.206594427" >
		</node>
		<node id="1235" x="4589007.37343635" y="5824768.019914843" >
		</node>
		<node id="1236" x="4589003.9819297055" y="5824767.958328855" >
		</node>
		<node id="1237" x="4589001.987437495" y="5824765.695948664" >
		</node>
		<node id="1238" x="4588999.334798188" y="5824762.308574951" >
		</node>
		<node id="1239" x="4588995.983701702" y="5824760.0216005" >
		</node>
		<node id="124" x="4583616.805343247" y="5815185.122688457" >
		</node>
		<node id="1240" x="4588991.974562255" y="5824756.609536836" >
		</node>
		<node id="1241" x="4588987.92490878" y="5824755.422957559" >
		</node>
		<node id="1242" x="4588983.895514483" y="5824753.123586252" >
		</node>
		<node id="1243" x="4588981.880763223" y="5824751.973998499" >
		</node>
		<node id="1244" x="4588971.786968762" y="5824747.338360678" >
		</node>
		<node id="1245" x="4588963.647352698" y="5824747.190595121" >
		</node>
		<node id="1246" x="4588950.101384442" y="5824745.8315523155" >
		</node>
		<node id="1247" x="4588920.215415144" y="5824747.5152540095" >
		</node>
		<node id="1248" x="4588907.327588383" y="5824747.281404303" >
		</node>
		<node id="1249" x="4588897.153069552" y="5824747.096747321" >
		</node>
		<node id="125" x="4583906.627314696" y="5815573.314400731" >
		</node>
		<node id="1250" x="4588886.978447132" y="5824746.912186135" >
		</node>
		<node id="1251" x="4588881.57209231" y="5824745.701009205" >
		</node>
		<node id="1252" x="4588876.145678465" y="5824745.6026321305" >
		</node>
		<node id="1253" x="4588868.68426388" y="5824745.46725955" >
		</node>
		<node id="1254" x="4588850.289303325" y="5824749.585910868" >
		</node>
		<node id="1255" x="4588814.936701683" y="5824753.397228132" >
		</node>
		<node id="1256" x="4588803.405472171" y="5824753.188272176" >
		</node>
		<node id="1257" x="4588793.909151798" y="5824753.016107769" >
		</node>
		<node id="1258" x="4588785.111384072" y="5824751.7436494455" >
		</node>
		<node id="1259" x="4588777.670119551" y="5824750.495781375" >
		</node>
		<node id="126" x="4584031.868514397" y="5815746.726215013" >
		</node>
		<node id="1260" x="4588767.495594833" y="5824750.311424041" >
		</node>
		<node id="1261" x="4588755.94420891" y="5824751.2152632205" >
		</node>
		<node id="1262" x="4588730.128234118" y="5824752.973752576" >
		</node>
		<node id="1263" x="4588709.040311434" y="5824755.931120447" >
		</node>
		<node id="1264" x="4588689.34930314" y="5824756.6876927065" >
		</node>
		<node id="1265" x="4588667.643540428" y="5824756.294878604" >
		</node>
		<node id="1266" x="4588601.129429786" y="5824757.317834306" >
		</node>
		<node id="1267" x="4588563.124155241" y="5824757.743776998" >
		</node>
		<node id="1268" x="4588538.685119692" y="5824758.415171601" >
		</node>
		<node id="1269" x="4588510.1963268025" y="5824757.900384884" >
		</node>
		<node id="1270" x="4588482.365675005" y="5824758.510788797" >
		</node>
		<node id="1271" x="4588442.305521334" y="5824760.013639952" >
		</node>
		<node id="1272" x="4588428.699260867" y="5824761.9941861415" >
		</node>
		<node id="1273" x="4588421.217874525" y="5824762.972313928" >
		</node>
		<node id="1274" x="4588413.7363926675" y="5824763.950337526" >
		</node>
		<node id="1275" x="4588410.385089627" y="5824761.663760991" >
		</node>
		<node id="1276" x="4588387.443133449" y="5824754.571472492" >
		</node>
		<node id="1277" x="4588354.864453187" y="5824755.096899457" >
		</node>
		<node id="1278" x="4588322.883749442" y="5824760.085606134" >
		</node>
		<node id="1279" x="4588296.329660994" y="5824765.172397258" >
		</node>
		<node id="1280" x="4588290.883182929" y="5824766.187315856" >
		</node>
		<node id="1283" x="4588072.947735991" y="5824773.395667135" >
		</node>
		<node id="1284" x="4588033.606140041" y="5824772.6886239" >
		</node>
		<node id="1285" x="4587992.229726472" y="5824771.945392836" >
		</node>
		<node id="1288" x="4586785.793314766" y="5824773.8022717545" >
		</node>
		<node id="1289" x="4586735.579380614" y="5824774.02618409" >
		</node>
		<node id="129" x="4584689.960129697" y="5816651.489244136" >
		</node>
		<node id="1290" x="4586679.919428651" y="5824775.267324755" >
		</node>
		<node id="1291" x="4586542.86354129" y="5824775.070708433" >
		</node>
		<node id="1292" x="4586428.830623992" y="5824777.510103191" >
		</node>
		<node id="1293" x="4586417.260287957" y="5824779.532160252" >
		</node>
		<node id="1294" x="4586409.759795874" y="5824781.626001927" >
		</node>
		<node id="1295" x="4586407.046568378" y="5824781.578112036" >
		</node>
		<node id="1296" x="4586404.991991245" y="5824782.6549223475" >
		</node>
		<node id="1297" x="4586402.937514073" y="5824783.731736801" >
		</node>
		<node id="1298" x="4586400.902592477" y="5824783.695844345" >
		</node>
		<node id="1299" x="4586399.506765631" y="5824785.897358947" >
		</node>
		<node id="13" x="4590759.760954152" y="5820855.233539699" >
		</node>
		<node id="130" x="4584843.490849313" y="5816883.560394969" >
		</node>
		<node id="1300" x="4586392.045485234" y="5824785.76579068" >
		</node>
		<node id="1303" x="4586282.102408151" y="5824787.167673257" >
		</node>
		<node id="1304" x="4586250.24200377" y="5824785.493705056" >
		</node>
		<node id="1305" x="4586172.2378095845" y="5824784.121241574" >
		</node>
		<node id="1306" x="4586109.116961107" y="5824785.237621099" >
		</node>
		<node id="1307" x="4585994.426016946" y="5824786.562528815" >
		</node>
		<node id="1308" x="4585931.305328714" y="5824787.681212338" >
		</node>
		<node id="1309" x="4585795.587443985" y="5824788.642017623" >
		</node>
		<node id="131" x="4585075.836353538" y="5817233.342453939" >
		</node>
		<node id="1310" x="4585708.687584672" y="5824791.573420856" >
		</node>
		<node id="1311" x="4585604.849927802" y="5824793.097294128" >
		</node>
		<node id="1312" x="4585509.830256641" y="5824794.777232273" >
		</node>
		<node id="1313" x="4585426.3805300705" y="5824794.434606794" >
		</node>
		<node id="1314" x="4585409.364921899" y="5824797.477103794" >
		</node>
		<node id="1315" x="4585374.59742324" y="5824806.888631014" >
		</node>
		<node id="1318" x="4585319.442515581" y="5824818.171367144" >
		</node>
		<node id="1319" x="4585237.718366167" y="5824835.670778098" >
		</node>
		<node id="1320" x="4585200.199592527" y="5824847.261744236" >
		</node>
		<node id="1321" x="4585141.441479195" y="5824870.727312238" >
		</node>
		<node id="1322" x="4585072.355142295" y="5824902.918612541" >
		</node>
		<node id="1323" x="4585008.695969256" y="5824935.20500385" >
		</node>
		<node id="1324" x="4584931.803254465" y="5824987.297450333" >
		</node>
		<node id="1325" x="4584845.902086847" y="5825050.365573957" >
		</node>
		<node id="1326" x="4584847.046678666" y="5825062.628880725" >
		</node>
		<node id="1327" x="4584849.566949144" y="5825073.802965835" >
		</node>
		<node id="1328" x="4584850.807926689" y="5825080.502723406" >
		</node>
		<node id="1329" x="4584850.6922821" y="5825087.178983743" >
		</node>
		<node id="1330" x="4584839.007837863" y="5825095.880929427" >
		</node>
		<node id="1331" x="4584834.664665379" y="5825072.431839674" >
		</node>
		<node id="1332" x="4584801.083388277" y="5825091.88530422" >
		</node>
		<node id="1333" x="4584795.618886769" y="5825094.0167564675" >
		</node>
		<node id="1334" x="4584792.886586088" y="5825095.082480468" >
		</node>
		<node id="1335" x="4584790.154381226" y="5825096.148308542" >
		</node>
		<node id="1336" x="4584787.441338122" y="5825096.101322084" >
		</node>
		<node id="1337" x="4584784.7090375405" y="5825097.16704601" >
		</node>
		<node id="1338" x="4584781.957575251" y="5825099.345584377" >
		</node>
		<node id="1339" x="4584739.290039362" y="5825134.224754937" >
		</node>
		<node id="134" x="4585565.094939418" y="5817901.261287055" >
		</node>
		<node id="1340" x="4584658.762185956" y="5825200.728069224" >
		</node>
		<node id="1343" x="4584508.852513494" y="5825317.235172966" >
		</node>
		<node id="1344" x="4584388.515256318" y="5825410.882250807" >
		</node>
		<node id="1345" x="4584312.897373293" y="5825468.57129974" >
		</node>
		<node id="1346" x="4584310.843575654" y="5825469.649024105" >
		</node>
		<node id="1347" x="4584295.187517055" y="5825472.718667529" >
		</node>
		<node id="1348" x="4584260.779946496" y="5825501.065826983" >
		</node>
		<node id="1349" x="4584192.023269468" y="5825554.422524066" >
		</node>
		<node id="135" x="4585667.095065467" y="5818034.6419389015" >
		</node>
		<node id="1350" x="4584143.202972573" y="5825592.540023625" >
		</node>
		<node id="1351" x="4584141.015448949" y="5825601.4068392245" >
		</node>
		<node id="1352" x="4584140.279956923" y="5825604.733284183" >
		</node>
		<node id="1353" x="4584139.525304406" y="5825609.172440096" >
		</node>
		<node id="1354" x="4584140.595022273" y="5825625.886426596" >
		</node>
		<node id="1355" x="4584109.714003204" y="5825646.503802258" >
		</node>
		<node id="1356" x="4584095.997664153" y="5825655.172608646" >
		</node>
		<node id="1357" x="4584093.265852851" y="5825656.238741684" >
		</node>
		<node id="1358" x="4584090.553102343" y="5825656.1921598315" >
		</node>
		<node id="1359" x="4584079.683235647" y="5825657.11865549" >
		</node>
		<node id="136" x="4585749.1264710855" y="5818141.910672096" >
		</node>
		<node id="1360" x="4584075.61426009" y="5825657.0487889275" >
		</node>
		<node id="1361" x="4584071.50695903" y="5825659.204443507" >
		</node>
		<node id="1362" x="4584063.254343734" y="5825665.740986086" >
		</node>
		<node id="1363" x="4584065.1933794" y="5825671.339436853" >
		</node>
		<node id="1364" x="4584065.174218608" y="5825672.452147415" >
		</node>
		<node id="1365" x="4584064.4770431" y="5825673.553269704" >
		</node>
		<node id="1366" x="4584064.457882296" y="5825674.665980263" >
		</node>
		<node id="1367" x="4584061.7070104405" y="5825676.8448275635" >
		</node>
		<node id="1368" x="4584061.009734974" y="5825677.945945661" >
		</node>
		<node id="1369" x="4584060.971617359" y="5825680.171275112" >
		</node>
		<node id="137" x="4585824.639188519" y="5818243.992933744" >
		</node>
		<node id="1370" x="4584062.289720695" y="5825682.419989372" >
		</node>
		<node id="1371" x="4584062.96793113" y="5825682.431685936" >
		</node>
		<node id="1372" x="4584063.626984873" y="5825683.55599311" >
		</node>
		<node id="1373" x="4584064.983309969" y="5825683.579282145" >
		</node>
		<node id="1374" x="4584065.6615245715" y="5825683.590878768" >
		</node>
		<node id="1375" x="4584069.071446166" y="5825682.53643866" >
		</node>
		<node id="1376" x="4584069.749560839" y="5825682.548031123" >
		</node>
		<node id="1377" x="4584071.086825068" y="5825683.684034902" >
		</node>
		<node id="138" x="4586458.016019279" y="5819102.622682024" >
		</node>
		<node id="1380" x="4584071.726817911" y="5825685.921056885" >
		</node>
		<node id="1381" x="4584071.688596105" y="5825688.146482239" >
		</node>
		<node id="1382" x="4584071.669535166" y="5825689.259196999" >
		</node>
		<node id="1383" x="4584070.991320542" y="5825689.247600356" >
		</node>
		<node id="1384" x="4584070.294049133" y="5825690.348618517" >
		</node>
		<node id="1385" x="4584068.937724001" y="5825690.325329439" >
		</node>
		<node id="1386" x="4584067.58139472" y="5825690.302140306" >
		</node>
		<node id="1387" x="4584060.121554653" y="5825690.174098265" >
		</node>
		<node id="1388" x="4584058.76522959" y="5825690.150809187" >
		</node>
		<node id="1389" x="4584057.427965481" y="5825689.014805431" >
		</node>
		<node id="139" x="4581711.223456921" y="5812669.575072804" >
		</node>
		<node id="1390" x="4584056.749750907" y="5825689.003208791" >
		</node>
		<node id="1391" x="4584053.416268956" y="5825685.606898355" >
		</node>
		<node id="1392" x="4584038.123745235" y="5825667.535901455" >
		</node>
		<node id="1393" x="4584022.172067379" y="5825648.340596336" >
		</node>
		<node id="1394" x="4584012.887553076" y="5825635.937920095" >
		</node>
		<node id="1395" x="4584010.232081362" y="5825632.553299373" >
		</node>
		<node id="1396" x="4584004.978423728" y="5825622.445819257" >
		</node>
		<node id="1397" x="4583999.705601109" y="5825613.451149822" >
		</node>
		<node id="1398" x="4583993.057397303" y="5825605.545806741" >
		</node>
		<node id="1399" x="4583987.708232546" y="5825601.001991291" >
		</node>
		<node id="140" x="4581514.120534761" y="5812402.324740476" >
		</node>
		<node id="1400" x="4583986.370968428" y="5825599.86598853" >
		</node>
		<node id="1401" x="4583985.033700157" y="5825598.730085732" >
		</node>
		<node id="1402" x="4583983.677275661" y="5825598.706793114" >
		</node>
		<node id="1403" x="4583983.018221722" y="5825597.582486672" >
		</node>
		<node id="1404" x="4583980.343593572" y="5825595.310477112" >
		</node>
		<node id="1405" x="4583967.591665251" y="5825587.30067707" >
		</node>
		<node id="1406" x="4583961.583351046" y="5825581.632452308" >
		</node>
		<node id="1407" x="4583907.824163074" y="5825551.772386766" >
		</node>
		<node id="1408" x="4583904.452257054" y="5825550.601596254" >
		</node>
		<node id="1409" x="4583898.3866592" y="5825548.271611512" >
		</node>
		<node id="141" x="4581332.62228953" y="5812161.1527081225" >
		</node>
		<node id="1410" x="4583895.014853265" y="5825547.100825269" >
		</node>
		<node id="1411" x="4583892.321057347" y="5825545.941726854" >
		</node>
		<node id="1412" x="4583871.37348908" y="5825541.1308249105" >
		</node>
		<node id="1413" x="4583840.893008608" y="5825538.383013367" >
		</node>
		<node id="1414" x="4583785.35754998" y="5825532.980652827" >
		</node>